atp/mgatp_crn_heta.pdb
 OpenBabel08012514283D

 47 49  0  0  1  0  0  0  0  0999 V2000
    2.8330  -16.1850   -8.7920 P   0  0  2  0  0  0  0  0  0  0  0  0
    0.3160  -17.4300   -8.0930 P   0  0  1  0  0  0  0  0  0  0  0  0
   -1.4090  -15.2450   -8.8280 P   0  0  0  0  0  0  0  0  0  0  0  0
    4.0260  -17.6580   -6.9870 C   0  0  0  0  0  0  0  0  0  0  0  0
    4.0220  -17.1120   -8.2930 O   0  0  0  0  0  0  0  0  0  0  0  0
    5.2280  -18.5510   -6.7880 C   0  0  1  0  0  0  0  0  0  0  0  0
    5.0240  -19.7620   -7.5280 O   0  0  0  0  0  0  0  0  0  0  0  0
    6.5450  -17.9580   -7.2980 C   0  0  1  0  0  0  0  0  0  0  0  0
    7.5890  -18.2580   -6.3950 O   0  0  0  0  0  0  0  0  0  0  0  0
    6.7550  -18.6620   -8.6130 C   0  0  1  0  0  0  0  0  0  0  0  0
    8.1000  -18.6960   -9.0030 O   0  0  0  0  0  0  0  0  0  0  0  0
    6.1940  -20.0290   -8.3070 C   0  0  2  0  0  0  0  0  0  0  0  0
    7.2740  -24.2580  -10.9640 N   0  0  0  0  0  0  0  0  0  0  0  0
    3.1720  -15.6610  -10.1410 O   0  0  0  0  0  0  0  0  0  0  0  0
    0.0300  -18.8770   -8.0840 O   0  0  0  0  0  0  0  0  0  0  0  0
   -0.4900  -14.4560   -7.9460 O   0  0  0  0  0  0  0  0  0  0  0  0
    7.8320  -23.7750   -9.8350 C   0  0  0  0  0  0  0  0  0  0  0  0
    2.5240  -15.1620   -7.7550 O   0  0  0  0  0  0  0  0  0  0  0  0
    0.4400  -16.7860   -6.7660 O   0  0  0  0  0  0  0  0  0  0  0  0
   -1.4770  -14.6910  -10.2100 O   0  0  0  0  0  0  0  0  0  0  0  0
    7.4440  -22.6430   -9.2510 N   0  0  0  0  0  0  0  0  0  0  0  0
    1.6360  -17.2050   -8.9450 O   0  0  0  0  0  0  0  0  0  0  0  0
   -0.7990  -16.7180   -8.9700 O   0  0  0  0  0  0  0  0  0  0  0  0
   -2.7740  -15.3940   -8.2460 O   0  0  0  0  0  0  0  0  0  0  0  0
    6.4390  -21.9630   -9.8320 C   0  0  0  0  0  0  0  0  0  0  0  0
    5.8040  -22.3880  -11.0130 C   0  0  0  0  0  0  0  0  0  0  0  0
    6.2720  -23.6180  -11.5900 C   0  0  0  0  0  0  0  0  0  0  0  0
    5.7660  -24.1390  -12.7080 N   0  0  0  0  0  0  0  0  0  0  0  0
    4.8580  -21.4870  -11.3450 N   0  0  0  0  0  0  0  0  0  0  0  0
    4.8930  -20.5490  -10.4130 C   0  0  0  0  0  0  0  0  0  0  0  0
    5.8440  -20.8170   -9.4930 N   0  0  0  0  0  0  0  0  0  0  0  0
    3.1342  -18.2314   -6.8428 H   0  0  0  0  0  0  0  0  0  0  0  0
    4.0698  -16.8574   -6.2784 H   0  0  0  0  0  0  0  0  0  0  0  0
    5.3123  -18.6951   -5.7311 H   0  0  0  0  0  0  0  0  0  0  0  0
    6.5263  -16.8928   -7.3971 H   0  0  0  0  0  0  0  0  0  0  0  0
    7.6448  -19.2187   -6.2729 H   0  0  0  0  0  0  0  0  0  0  0  0
    6.2865  -18.1791   -9.4450 H   0  0  0  0  0  0  0  0  0  0  0  0
    8.6273  -19.1216   -8.3089 H   0  0  0  0  0  0  0  0  0  0  0  0
    6.9284  -20.6244   -7.8059 H   0  0  0  0  0  0  0  0  0  0  0  0
    0.3815  -14.3872   -8.3663 H   0  0  0  0  0  0  0  0  0  0  0  0
    8.5999  -24.3108   -9.4011 H   0  0  0  0  0  0  0  0  0  0  0  0
    1.7976  -14.5981   -8.0635 H   0  0  0  0  0  0  0  0  0  0  0  0
    0.6270  -15.8412   -6.8813 H   0  0  0  0  0  0  0  0  0  0  0  0
   -3.3291  -15.9099   -8.8515 H   0  0  0  0  0  0  0  0  0  0  0  0
    5.0317  -23.6802  -13.1765 H   0  0  0  0  0  0  0  0  0  0  0  0
    6.1267  -24.9826  -13.0651 H   0  0  0  0  0  0  0  0  0  0  0  0
    4.2755  -19.7224  -10.3919 H   0  0  0  0  0  0  0  0  0  0  0  0
  1 14  2  6  0  0  0
  1  5  1  0  0  0  0
  1 18  1  0  0  0  0
  2 15  2  1  0  0  0
  2 19  1  0  0  0  0
  3 24  1  0  0  0  0
  3 16  1  0  0  0  0
  4  6  1  0  0  0  0
  4 32  1  0  0  0  0
  4 33  1  0  0  0  0
  5  4  1  0  0  0  0
  6  8  1  6  0  0  0
  6 34  1  0  0  0  0
  7  6  1  0  0  0  0
  8 10  1  6  0  0  0
  8  9  1  0  0  0  0
  8 35  1  0  0  0  0
  9 36  1  0  0  0  0
 10 12  1  1  0  0  0
 10 37  1  0  0  0  0
 11 10  1  0  0  0  0
 11 38  1  0  0  0  0
 12  7  1  0  0  0  0
 12 39  1  1  0  0  0
 13 17  2  0  0  0  0
 16 40  1  0  0  0  0
 17 21  1  0  0  0  0
 17 41  1  0  0  0  0
 18 42  1  0  0  0  0
 19 43  1  0  0  0  0
 20  3  2  0  0  0  0
 22  1  1  0  0  0  0
 22  2  1  0  0  0  0
 23  3  1  0  0  0  0
 23  2  1  0  0  0  0
 24 44  1  0  0  0  0
 25 31  1  0  0  0  0
 25 21  2  0  0  0  0
 26 25  1  0  0  0  0
 27 26  2  0  0  0  0
 27 13  1  0  0  0  0
 28 27  1  0  0  0  0
 28 45  1  0  0  0  0
 28 46  1  0  0  0  0
 29 26  1  0  0  0  0
 29 30  2  0  0  0  0
 30 31  1  0  0  0  0
 30 47  1  0  0  0  0
 31 12  1  0  0  0  0
M  END
