atp/mgatp_crn_heta.pdb
 OpenBabel08012514283D

 31 33  0  0  1  0  0  0  0  0999 V2000
    2.8330  -16.1850   -8.7920 P   0  0  2  0  0  0  0  0  0  0  0  0
    0.3160  -17.4300   -8.0930 P   0  0  1  0  0  0  0  0  0  0  0  0
   -1.4090  -15.2450   -8.8280 P   0  0  0  0  0  0  0  0  0  0  0  0
    4.0260  -17.6580   -6.9870 C   0  0  0  0  0  0  0  0  0  0  0  0
    4.0220  -17.1120   -8.2930 O   0  0  0  0  0  0  0  0  0  0  0  0
    5.2280  -18.5510   -6.7880 C   0  0  1  0  0  0  0  0  0  0  0  0
    5.0240  -19.7620   -7.5280 O   0  0  0  0  0  0  0  0  0  0  0  0
    6.5450  -17.9580   -7.2980 C   0  0  1  0  0  0  0  0  0  0  0  0
    7.5890  -18.2580   -6.3950 O   0  0  0  0  0  0  0  0  0  0  0  0
    6.7550  -18.6620   -8.6130 C   0  0  1  0  0  0  0  0  0  0  0  0
    8.1000  -18.6960   -9.0030 O   0  0  0  0  0  0  0  0  0  0  0  0
    6.1940  -20.0290   -8.3070 C   0  0  2  0  0  0  0  0  0  0  0  0
    7.2740  -24.2580  -10.9640 N   0  0  0  0  0  0  0  0  0  0  0  0
    3.1720  -15.6610  -10.1410 O   0  0  0  0  0  0  0  0  0  0  0  0
    0.0300  -18.8770   -8.0840 O   0  0  0  0  0  0  0  0  0  0  0  0
   -0.4900  -14.4560   -7.9460 O   0  0  0  0  0  0  0  0  0  0  0  0
    7.8320  -23.7750   -9.8350 C   0  0  0  0  0  0  0  0  0  0  0  0
    2.5240  -15.1620   -7.7550 O   0  0  0  0  0  0  0  0  0  0  0  0
    0.4400  -16.7860   -6.7660 O   0  0  0  0  0  0  0  0  0  0  0  0
   -1.4770  -14.6910  -10.2100 O   0  0  0  0  0  0  0  0  0  0  0  0
    7.4440  -22.6430   -9.2510 N   0  0  0  0  0  0  0  0  0  0  0  0
    1.6360  -17.2050   -8.9450 O   0  0  0  0  0  0  0  0  0  0  0  0
   -0.7990  -16.7180   -8.9700 O   0  0  0  0  0  0  0  0  0  0  0  0
   -2.7740  -15.3940   -8.2460 O   0  0  0  0  0  0  0  0  0  0  0  0
    6.4390  -21.9630   -9.8320 C   0  0  0  0  0  0  0  0  0  0  0  0
    5.8040  -22.3880  -11.0130 C   0  0  0  0  0  0  0  0  0  0  0  0
    6.2720  -23.6180  -11.5900 C   0  0  0  0  0  0  0  0  0  0  0  0
    5.7660  -24.1390  -12.7080 N   0  0  0  0  0  0  0  0  0  0  0  0
    4.8580  -21.4870  -11.3450 N   0  0  0  0  0  0  0  0  0  0  0  0
    4.8930  -20.5490  -10.4130 C   0  0  0  0  0  0  0  0  0  0  0  0
    5.8440  -20.8170   -9.4930 N   0  0  0  0  0  0  0  0  0  0  0  0
  1 14  2  6  0  0  0
  1  5  1  0  0  0  0
  1 18  1  0  0  0  0
  2 15  2  1  0  0  0
  2 19  1  0  0  0  0
  3 24  1  0  0  0  0
  3 16  1  0  0  0  0
  5  4  1  0  0  0  0
  6  4  1  6  0  0  0
  7  6  1  0  0  0  0
  8  6  1  0  0  0  0
  8  9  1  1  0  0  0
 10 11  1  1  0  0  0
 10 12  1  0  0  0  0
 10  8  1  0  0  0  0
 12 31  1  6  0  0  0
 12  7  1  0  0  0  0
 13 17  2  0  0  0  0
 17 21  1  0  0  0  0
 20  3  2  0  0  0  0
 22  1  1  0  0  0  0
 22  2  1  0  0  0  0
 23  3  1  0  0  0  0
 23  2  1  0  0  0  0
 25 31  1  0  0  0  0
 25 21  2  0  0  0  0
 26 25  1  0  0  0  0
 27 26  2  0  0  0  0
 27 13  1  0  0  0  0
 28 27  1  0  0  0  0
 29 26  1  0  0  0  0
 29 30  2  0  0  0  0
 30 31  1  0  0  0  0
M  END
