@<TRIPOS>MOLECULE
atp/mgatp_crn_hetb.pdb
 47 49 0 0 0
SMALL
GASTEIGER

@<TRIPOS>ATOM
      1  PA        11.0840   15.8260    4.0890 P.3     1  ATP1        0.4835
      2  PB         8.9960   17.5470    5.1330 P.3     1  ATP1        0.4918
      3  PG         7.8290   15.6370    6.9590 P.3     1  ATP1        0.4808
      4  C5'       11.0210   17.1920    1.8540 C.3     1  ATP1        0.0879
      5  O5'       11.7830   16.5780    2.8680 O.3     1  ATP1       -0.2837
      6  C4'       11.9260   17.8660    0.8520 C.3     1  ATP1        0.1134
      7  O4'       12.4830   19.0410    1.4590 O.3     1  ATP1       -0.3456
      8  C3'       13.1170   17.0230    0.3990 C.3     1  ATP1        0.1135
      9  O3'       13.3370   17.1880   -0.9790 O.3     1  ATP1       -0.3864
     10  C2'       14.2680   17.5810    1.1980 C.3     1  ATP1        0.1285
     11  O2'       15.5170   17.3590    0.5940 O.3     1  ATP1       -0.3847
     12  C1'       13.8970   19.0470    1.2530 C.3     1  ATP1        0.1667
     13  N1        17.1980   22.8080    2.2570 N.ar    1  ATP1       -0.2188
     14  O1A       12.1260   15.1670    4.9060 O.3     1  ATP1       -0.3022
     15  O1B        9.0500   19.0130    5.2310 O.3     1  ATP1       -0.3019
     16  O1G        7.7870   14.7780    5.7480 O.2     1  ATP1       -0.2271
     17  C2        16.7740   22.3150    1.0680 C.ar    1  ATP1        0.1205
     18  O2A        9.9980   14.9540    3.5800 O.2     1  ATP1       -0.2269
     19  O2B        8.0980   16.9900    4.1010 O.2     1  ATP1       -0.2265
     20  O2G        8.5950   15.0190    8.0770 O.3     1  ATP1       -0.3023
     21  N3        15.9070   21.3210    0.9670 N.ar    1  ATP1       -0.2159
     22  O3A       10.4920   17.0400    4.9220 O.3     1  ATP1       -0.1858
     23  O3B        8.6270   16.9780    6.5730 O.3     1  ATP1       -0.1859
     24  O3G        6.4790   16.0770    7.4140 O.3     1  ATP1       -0.3023
     25  C4        15.4340   20.7870    2.1140 C.ar    1  ATP1        0.1674
     26  C5        15.8280   21.2390    3.3870 C.ar    1  ATP1        0.1473
     27  C6        16.7620   22.3150    3.4330 C.ar    1  ATP1        0.1472
     28  N6        17.2200   22.8460    4.5620 N.pl3   1  ATP1       -0.3413
     29  N7        15.1820   20.5030    4.3200 N.ar    1  ATP1       -0.2306
     30  C8        14.4270   19.6450    3.6640 C.ar    1  ATP1        0.1004
     31  N9        14.5630   19.7910    2.3240 N.ar    1  ATP1       -0.2855
     32 H          10.4339   16.4493    1.3553 H       1  ATP1        0.0592
     33 H          10.3831   17.9284    2.2964 H       1  ATP1        0.0592
     34 H          11.3120   18.0601   -0.0025 H       1  ATP1        0.0647
     35 H          12.9754   15.9739    0.5549 H       1  ATP1        0.0647
     36 H          13.4721   18.1284   -1.1745 H       1  ATP1        0.2100
     37 H          14.3920   17.1231    2.1571 H       1  ATP1        0.0665
     38 H          15.5172   17.7404   -0.2979 H       1  ATP1        0.2101
     39 H          14.2062   19.5434    0.3569 H       1  ATP1        0.0866
     40 H          12.5002   14.4207    4.4121 H       1  ATP1        0.2220
     41 H           9.2737   19.3870    4.3644 H       1  ATP1        0.2220
     42 H          17.1447   22.7345    0.2011 H       1  ATP1        0.1048
     43 H           9.4675   14.7417    7.7566 H       1  ATP1        0.2220
     44 H           6.0009   16.4751    6.6699 H       1  ATP1        0.2220
     45 H          17.8651   23.5890    4.5303 H       1  ATP1        0.1438
     46 H          16.9141   22.4963    5.4300 H       1  ATP1        0.1438
     47 H          13.8105   18.9502    4.1138 H       1  ATP1        0.1030
@<TRIPOS>BOND
     1     9     8    1
     2     8     6    1
     3     8    10    1
     4    11    10    1
     5     6     7    1
     6     6     4    1
     7    21    17   ar
     8    21    25   ar
     9    17    13   ar
    10    10    12    1
    11    12     7    1
    12    12    31    1
    13     4     5    1
    14    25    31   ar
    15    25    26   ar
    16    13    27   ar
    17    31    30   ar
    18     5     1    1
    19    26    27   ar
    20    26    29   ar
    21    27    28    1
    22    18     1    2
    23    30    29   ar
    24     1    14    1
    25     1    22    1
    26    19     2    2
    27    22     2    1
    28     2    15    1
    29     2    23    1
    30    16     3    2
    31    23     3    1
    32     3    24    1
    33     3    20    1
    34     4    32    1
    35     4    33    1
    36     6    34    1
    37     8    35    1
    38     9    36    1
    39    10    37    1
    40    11    38    1
    41    12    39    1
    42    14    40    1
    43    15    41    1
    44    17    42    1
    45    20    43    1
    46    24    44    1
    47    28    45    1
    48    28    46    1
    49    30    47    1
