atp/mgatp_crn_hetb.pdb
 OpenBabel08012514283D

 47 49  0  0  1  0  0  0  0  0999 V2000
   11.0840   15.8260    4.0890 P   0  0  2  0  0  0  0  0  0  0  0  0
    8.9960   17.5470    5.1330 P   0  0  1  0  0  0  0  0  0  0  0  0
    7.8290   15.6370    6.9590 P   0  0  0  0  0  0  0  0  0  0  0  0
   11.0210   17.1920    1.8540 C   0  0  0  0  0  0  0  0  0  0  0  0
   11.7830   16.5780    2.8680 O   0  0  0  0  0  0  0  0  0  0  0  0
   11.9260   17.8660    0.8520 C   0  0  1  0  0  0  0  0  0  0  0  0
   12.4830   19.0410    1.4590 O   0  0  0  0  0  0  0  0  0  0  0  0
   13.1170   17.0230    0.3990 C   0  0  1  0  0  0  0  0  0  0  0  0
   13.3370   17.1880   -0.9790 O   0  0  0  0  0  0  0  0  0  0  0  0
   14.2680   17.5810    1.1980 C   0  0  1  0  0  0  0  0  0  0  0  0
   15.5170   17.3590    0.5940 O   0  0  0  0  0  0  0  0  0  0  0  0
   13.8970   19.0470    1.2530 C   0  0  2  0  0  0  0  0  0  0  0  0
   17.1980   22.8080    2.2570 N   0  0  0  0  0  0  0  0  0  0  0  0
   12.1260   15.1670    4.9060 O   0  0  0  0  0  0  0  0  0  0  0  0
    9.0500   19.0130    5.2310 O   0  0  0  0  0  0  0  0  0  0  0  0
    7.7870   14.7780    5.7480 O   0  0  0  0  0  0  0  0  0  0  0  0
   16.7740   22.3150    1.0680 C   0  0  0  0  0  0  0  0  0  0  0  0
    9.9980   14.9540    3.5800 O   0  0  0  0  0  0  0  0  0  0  0  0
    8.0980   16.9900    4.1010 O   0  0  0  0  0  0  0  0  0  0  0  0
    8.5950   15.0190    8.0770 O   0  0  0  0  0  0  0  0  0  0  0  0
   15.9070   21.3210    0.9670 N   0  0  0  0  0  0  0  0  0  0  0  0
   10.4920   17.0400    4.9220 O   0  0  0  0  0  0  0  0  0  0  0  0
    8.6270   16.9780    6.5730 O   0  0  0  0  0  0  0  0  0  0  0  0
    6.4790   16.0770    7.4140 O   0  0  0  0  0  0  0  0  0  0  0  0
   15.4340   20.7870    2.1140 C   0  0  0  0  0  0  0  0  0  0  0  0
   15.8280   21.2390    3.3870 C   0  0  0  0  0  0  0  0  0  0  0  0
   16.7620   22.3150    3.4330 C   0  0  0  0  0  0  0  0  0  0  0  0
   17.2200   22.8460    4.5620 N   0  0  0  0  0  0  0  0  0  0  0  0
   15.1820   20.5030    4.3200 N   0  0  0  0  0  0  0  0  0  0  0  0
   14.4270   19.6450    3.6640 C   0  0  0  0  0  0  0  0  0  0  0  0
   14.5630   19.7910    2.3240 N   0  0  0  0  0  0  0  0  0  0  0  0
   10.4339   16.4493    1.3553 H   0  0  0  0  0  0  0  0  0  0  0  0
   10.3831   17.9284    2.2964 H   0  0  0  0  0  0  0  0  0  0  0  0
   11.3120   18.0601   -0.0025 H   0  0  0  0  0  0  0  0  0  0  0  0
   12.9754   15.9739    0.5549 H   0  0  0  0  0  0  0  0  0  0  0  0
   13.4721   18.1284   -1.1745 H   0  0  0  0  0  0  0  0  0  0  0  0
   14.3920   17.1231    2.1571 H   0  0  0  0  0  0  0  0  0  0  0  0
   15.5172   17.7404   -0.2979 H   0  0  0  0  0  0  0  0  0  0  0  0
   14.2062   19.5434    0.3569 H   0  0  0  0  0  0  0  0  0  0  0  0
   12.5002   14.4207    4.4121 H   0  0  0  0  0  0  0  0  0  0  0  0
    9.2737   19.3870    4.3644 H   0  0  0  0  0  0  0  0  0  0  0  0
   17.1447   22.7345    0.2011 H   0  0  0  0  0  0  0  0  0  0  0  0
    9.4675   14.7417    7.7566 H   0  0  0  0  0  0  0  0  0  0  0  0
    6.0009   16.4751    6.6699 H   0  0  0  0  0  0  0  0  0  0  0  0
   17.8651   23.5890    4.5303 H   0  0  0  0  0  0  0  0  0  0  0  0
   16.9141   22.4963    5.4300 H   0  0  0  0  0  0  0  0  0  0  0  0
   13.8105   18.9502    4.1138 H   0  0  0  0  0  0  0  0  0  0  0  0
  1 18  2  6  0  0  0
  1 14  1  0  0  0  0
  1 22  1  0  0  0  0
  2 19  2  6  0  0  0
  2 15  1  0  0  0  0
  2 23  1  0  0  0  0
  3 24  1  0  0  0  0
  3 20  1  0  0  0  0
  4  5  1  0  0  0  0
  4 32  1  0  0  0  0
  4 33  1  0  0  0  0
  5  1  1  0  0  0  0
  6  8  1  6  0  0  0
  6  7  1  0  0  0  0
  6  4  1  0  0  0  0
  6 34  1  0  0  0  0
  8 10  1  1  0  0  0
  8 35  1  0  0  0  0
  9  8  1  0  0  0  0
  9 36  1  0  0  0  0
 10 12  1  1  0  0  0
 10 37  1  0  0  0  0
 11 10  1  0  0  0  0
 11 38  1  0  0  0  0
 12  7  1  0  0  0  0
 12 31  1  0  0  0  0
 12 39  1  6  0  0  0
 13 27  2  0  0  0  0
 14 40  1  0  0  0  0
 15 41  1  0  0  0  0
 16  3  2  0  0  0  0
 17 13  1  0  0  0  0
 17 42  1  0  0  0  0
 20 43  1  0  0  0  0
 21 17  2  0  0  0  0
 21 25  1  0  0  0  0
 22  2  1  0  0  0  0
 23  3  1  0  0  0  0
 24 44  1  0  0  0  0
 25 31  1  0  0  0  0
 25 26  2  0  0  0  0
 26 27  1  0  0  0  0
 26 29  1  0  0  0  0
 27 28  1  0  0  0  0
 28 45  1  0  0  0  0
 28 46  1  0  0  0  0
 30 29  2  0  0  0  0
 30 47  1  0  0  0  0
 31 30  1  0  0  0  0
M  END
